@<TRIPOS>MOLECULE
LIG.xyz
 27 26 0 0 0
SMALL
GASTEIGER

@<TRIPOS>ATOM
      1 C          -2.6208    0.8368   -0.8440 C.2     1  UNL1       -0.1021
      2 H          -3.0991   -0.0797   -0.5330 H       1  UNL1        0.0532
      3 H          -2.4890    0.9752   -1.9071 H       1  UNL1        0.0532
      4 C          -2.2148    1.7824    0.0249 C.2     1  UNL1       -0.0844
      5 H          -1.7490    2.6821   -0.3520 H       1  UNL1        0.0572
      6 C          -2.4000    1.6936    1.4306 C.2     1  UNL1       -0.0052
      7 C          -3.0270    0.5473    2.1013 C.3     1  UNL1       -0.0553
      8 H          -3.0720   -0.3636    1.5184 H       1  UNL1        0.0238
      9 H          -2.5356    0.3544    3.0530 H       1  UNL1        0.0238
     10 H          -4.0492    0.8472    2.3555 H       1  UNL1        0.0238
     11 C          -1.8933    2.7712    2.2559 C.3     1  UNL1       -0.0400
     12 H          -1.9314    3.7328    1.7512 H       1  UNL1        0.0277
     13 H          -2.3871    2.8234    3.2207 H       1  UNL1        0.0277
     14 C          -0.3542    2.4451    2.5253 C.3     1  UNL1       -0.0337
     15 H          -0.2827    1.4756    3.0096 H       1  UNL1        0.0308
     16 H           0.1489    2.3766    1.5635 H       1  UNL1        0.0308
     17 C           0.2352    3.5319    3.3459 C.2     1  UNL1       -0.0853
     18 H           0.4782    4.4390    2.8069 H       1  UNL1        0.0571
     19 C           0.4916    3.4891    4.6587 C.2     1  UNL1       -0.0796
     20 C           1.1418    4.6507    5.3348 C.3     1  UNL1       -0.0440
     21 H           0.5132    5.0222    6.1440 H       1  UNL1        0.0274
     22 H           2.0858    4.3480    5.7869 H       1  UNL1        0.0274
     23 H           1.3378    5.4677    4.6474 H       1  UNL1        0.0274
     24 C           0.1909    2.3321    5.5520 C.3     1  UNL1       -0.0440
     25 H          -0.2884    1.4970    5.0512 H       1  UNL1        0.0274
     26 H           1.1077    1.9656    6.0126 H       1  UNL1        0.0274
     27 H          -0.4564    2.6513    6.3683 H       1  UNL1        0.0274
@<TRIPOS>BOND
     1     3     1    1
     2     1     2    1
     3     1     4    2
     4     5     4    1
     5     4     6    1
     6     6     7    1
     7     6    11    1
     8     8     7    1
     9    16    14    1
    10    12    11    1
    11     7    10    1
    12     7     9    1
    13    11    14    1
    14    11    13    1
    15    14    15    1
    16    14    17    1
    17    18    17    1
    18    17    19    2
    19    23    20    1
    20    19    20    1
    21    19    24    1
    22    25    24    1
    23    20    22    1
    24    20    21    1
    25    24    26    1
    26    24    27    1
